/*---------------------------------------------------------------------------*\
| =========                 |                                                 |
| \\      /  F ield         | OpenFOAM: The Open Source CFD Toolbox           |
|  \\    /   O peration     | Version:  1.6                                   |
|   \\  /    A nd           | Web:      http://www.openfoam.org               |
|    \\/     M anipulation  |                                                 |
\*---------------------------------------------------------------------------*/

FoamFile
{
    version         2.0;
    format          ascii;
    class           dictionary;
    object          controlDict;
}

// * * * * * * * * * * * * * * * * * * * * * * * * * * * * * * * * * * * * * //

application     sonicSRFFoam;

startFrom       latestTime;

startTime       0;

stopAt          endTime;

endTime         10000;

deltaT          1;

writeControl    timeStep;

writeInterval   100;

purgeWrite      10;

writeFormat     ascii;

writePrecision  6;

writeCompression uncompressed;

timeFormat      general;

timePrecision   6;

runTimeModifiable yes;

// Automatic adjustment of global time step?
adjustTimeStep  no;

// global maxCo
maxCo           0.3;

// maxDeltaT       0.00001;

// libs ( "libOpenFoamTurbo.so" );

// ************************************************************************* //
