/*--------------------------------*- C++ -*----------------------------------*\
| =========                 |                                                 |
| \\      /  F ield         | OpenFOAM: The Open Source CFD Toolbox           |
|  \\    /   O peration     | Version:  1.5                                   |
|   \\  /    A nd           | Web:      http://www.OpenFOAM.org               |
|    \\/     M anipulation  |                                                 |
\*---------------------------------------------------------------------------*/
FoamFile
{
    version     2.0;
    format      ascii;
    class       volVectorField;
    object      U;
}
// * * * * * * * * * * * * * * * * * * * * * * * * * * * * * * * * * * * * * //

dimensions      [0 1 -1 0 0 0 0];

internalField   uniform (-1 -1 0.01);

boundaryField
{
    BC1_on_CURVES
    {
        type            fixedValue;
        value           uniform (0 0 0);
    }

    BC1_on_ENTREE.POLY
    {
        type            fixedValue;
        value           uniform (1 0 0);
    }

    BC1_on_SORTIE.POLY
    {
        type            zeroGradient;
    }
}


// ************************************************************************* //
